10

C         0.45385000        -1.19790000         4.04740000
O         1.09380000        -0.80960000         4.91835000
Ag         0.00000000        -0.58890000         1.90010000
Ag         1.90010000         0.58890000         0.00000000
Ag         0.00000000         2.13290000         1.47110000
Ag        -1.90010000         0.58890000         0.00000000
Ag         0.00000000         2.13290000        -1.47110000
Ag        -1.47110000        -2.13290000         0.00000000
Ag        -0.01570000        -0.56410000        -1.92550000
Ag         1.44690000        -2.12700000        -0.03730000
